THERMO
   298.000  1000.000  5000.000
N2                121286N   2               G  0300.00   5000.00  1000.00      1
 0.02926640E+02 0.14879768E-02-0.05684760E-05 0.10097038E-09-0.06753351E-13    2
-0.09227977E+04 0.05980528E+02 0.03298677E+02 0.14082404E-02-0.03963222E-04    3
 0.05641515E-07-0.02444854E-10-0.10208999E+04 0.03950372E+02                   4
AR                120186AR  1               G  0300.00   5000.00  1000.00      1
 0.02500000E+02 0.00000000E+00 0.00000000E+00 0.00000000E+00 0.00000000E+00    2
-0.07453750E+04 0.04366000E+02 0.02500000E+02 0.00000000E+00 0.00000000E+00    3
 0.00000000E+00 0.00000000E+00-0.07453750E+04 0.04366000E+02                   4
HE                L10/90HE  1    0    0    0G   200.000  6000.000 1000.        1
 2.50000000E+00 0.00000000E+00 0.00000000E+00 0.00000000E+00 0.00000000E+00    2
-7.45375000E+02 9.28723974E-01 2.50000000E+00 0.00000000E+00 0.00000000E+00    3
 0.00000000E+00 0.00000000E+00-7.45375000E+02 9.28723974E-01 0.00000000E+00    4
O                 L 1/90O   1   00   00   00G   200.000  3500.000  1000.000    1
 2.56942078E+00-8.59741137E-05 4.19484589E-08-1.00177799E-11 1.22833691E-15    2
 2.92175791E+04 4.78433864E+00 3.16826710E+00-3.27931884E-03 6.64306396E-06    3
-6.12806624E-09 2.11265971E-12 2.91222592E+04 2.05193346E+00                   4
O2                TPIS89O   2   00   00   00G   200.000  3500.000  1000.000    1
 3.28253784E+00 1.48308754E-03-7.57966669E-07 2.09470555E-10-2.16717794E-14    2
-1.08845772E+03 5.45323129E+00 3.78245636E+00-2.99673416E-03 9.84730201E-06    3
-9.68129509E-09 3.24372837E-12-1.06394356E+03 3.65767573E+00                   4
H                 L 7/88H   1   00   00   00G   200.000  3500.000   1000.00    1
 2.50000001E+00-2.30842973E-11 1.61561948E-14-4.73515235E-18 4.98197357E-22    2
 2.54736599E+04-4.46682914E-01 2.50000000E+00 7.05332819E-13-1.99591964E-15    3
 2.30081632E-18-9.27732332E-22 2.54736599E+04-4.46682853E-01                   4
H2                TPIS78H   2   00   00   00G   200.000  3500.000   1000.00    1
 3.33727920E+00-4.94024731E-05 4.99456778E-07-1.79566394E-10 2.00255376E-14    2
-9.50158922E+02-3.20502331E+00 2.34433112E+00 7.98052075E-03-1.94781510E-05    3
 2.01572094E-08-7.37611761E-12-9.17935173E+02 6.83010238E-01                   4
OH                S 9/01O   1H   1    0    0G   200.000  6000.000   1000.00    1
 2.86472886E+00 1.05650448E-03-2.59082758E-07 3.05218674E-11-1.33195876E-15    2
 3.71885774E+03 5.70164073E+00 4.12530561E+00-3.22544939E-03 6.52764691E-06    3
-5.79853643E-09 2.06237379E-12 3.38153812E+03-6.90432960E-01                   4
H2O               L 8/89H   2O   1   00   00G   200.000  3500.000  1000.000    1
 3.03399249E+00 2.17691804E-03-1.64072518E-07-9.70419870E-11 1.68200992E-14    2
-3.00042971E+04 4.96677010E+00 4.19864056E+00-2.03643410E-03 6.52040211E-06    3
-5.48797062E-09 1.77197817E-12-3.02937267E+04-8.49032208E-01                   4
HO2               L 5/89H   1O   2   00   00G   200.000  3500.000  1000.000    1
 4.01721090E+00 2.23982013E-03-6.33658150E-07 1.14246370E-10-1.07908535E-14    2
 1.11856713E+02 3.78510215E+00 4.30179801E+00-4.74912051E-03 2.11582891E-05    3
-2.42763894E-08 9.29225124E-12 2.94808040E+02 3.71666245E+00                   4
H2O2              L 7/88H   2O   2   00   00G   200.000  3500.000  1000.000    1
 4.16500285E+00 4.90831694E-03-1.90139225E-06 3.71185986E-10-2.87908305E-14    2
-1.78617877E+04 2.91615662E+00 4.27611269E+00-5.42822417E-04 1.67335701E-05    3
-2.15770813E-08 8.62454363E-12-1.77025821E+04 3.43505074E+00                   4
CH2               L S/93C   1H   2   00   00G   200.000  3500.000  1000.000    1
 2.87410113E+00 3.65639292E-03-1.40894597E-06 2.60179549E-10-1.87727567E-14    2
 4.62636040E+04 6.17119324E+00 3.76267867E+00 9.68872143E-04 2.79489841E-06    3
-3.85091153E-09 1.68741719E-12 4.60040401E+04 1.56253185E+00                   4
CH2*              L S/93C   1H   2   00   00G   200.000  3500.000  1000.000    1
 2.29203842E+00 4.65588637E-03-2.01191947E-06 4.17906000E-10-3.39716365E-14    2
 5.09259997E+04 8.62650169E+00 4.19860411E+00-2.36661419E-03 8.23296220E-06    3
-6.68815981E-09 1.94314737E-12 5.04968163E+04-7.69118967E-01                   4
CH3               L11/89C   1H   3   00   00G   200.000  3500.000  1000.000    1
 2.28571772E+00 7.23990037E-03-2.98714348E-06 5.95684644E-10-4.67154394E-14    2
 1.67755843E+04 8.48007179E+00 3.67359040E+00 2.01095175E-03 5.73021856E-06    3
-6.87117425E-09 2.54385734E-12 1.64449988E+04 1.60456433E+00                   4
CH4               L 8/88C   1H   4   00   00G   200.000  3500.000  1000.000    1
 7.48514950E-02 1.33909467E-02-5.73285809E-06 1.22292535E-09-1.01815230E-13    2
-9.46834459E+03 1.84373180E+01 5.14987613E+00-1.36709788E-02 4.91800599E-05    3
-4.84743026E-08 1.66693956E-11-1.02466476E+04-4.64130376E+00                   4
CO                TPIS79C   1O   1   00   00G   200.000  3500.000  1000.000    1
 2.71518561E+00 2.06252743E-03-9.98825771E-07 2.30053008E-10-2.03647716E-14    2
-1.41518724E+04 7.81868772E+00 3.57953347E+00-6.10353680E-04 1.01681433E-06    3
 9.07005884E-10-9.04424499E-13-1.43440860E+04 3.50840928E+00                   4
CO2               L 7/88C   1O   2   00   00G   200.000  3500.000  1000.000    1
 3.85746029E+00 4.41437026E-03-2.21481404E-06 5.23490188E-10-4.72084164E-14    2
-4.87591660E+04 2.27163806E+00 2.35677352E+00 8.98459677E-03-7.12356269E-06    3
 2.45919022E-09-1.43699548E-13-4.83719697E+04 9.90105222E+00                   4
HCO               L12/89H   1C   1O   1   00G   200.000  3500.000  1000.000    1
 2.77217438E+00 4.95695526E-03-2.48445613E-06 5.89161778E-10-5.33508711E-14    2
 4.01191815E+03 9.79834492E+00 4.22118584E+00-3.24392532E-03 1.37799446E-05    3
-1.33144093E-08 4.33768865E-12 3.83956496E+03 3.39437243E+00                   4
CH2O              L 8/88H   2C   1O   1   00G   200.000  3500.000  1000.000    1
 1.76069008E+00 9.20000082E-03-4.42258813E-06 1.00641212E-09-8.83855640E-14    2
-1.39958323E+04 1.36563230E+01 4.79372315E+00-9.90833369E-03 3.73220008E-05    3
-3.79285261E-08 1.31772652E-11-1.43089567E+04 6.02812900E-01                   4
CH2OH             IU2/03C   1H   3O   1   00G   200.000  6000.00               1
 5.09314370E+00 5.94761260E-03-2.06497460E-06 3.23008173E-10-1.88125902E-14    2
-4.03409640E+03-1.84691493E+00 4.47834367E+00-1.35070310E-03 2.78484980E-05    3
-3.64869060E-08 1.47907450E-11-3.50072890E+03 3.30913500E+00                   4
CH3O              IU1/03C   1H   3O   1     G   200.000  6000.00               1
 4.75779238E+00 7.44142474E-03-2.69705176E-06 4.38090504E-10-2.63537098E-14    2
 3.78111940E+02-1.96680028E+00 3.71180502E+00-2.80463306E-03 3.76550971E-05    3
-4.73072089E-08 1.86588420E-11 1.29569760E+03 6.57240864E+00                   4
CH3OH             L 8/88C   1H   4O   1   00G   200.000  3500.000  1000.000    1
 1.78970791E+00 1.40938292E-02-6.36500835E-06 1.38171085E-09-1.17060220E-13    2
-2.53748747E+04 1.45023623E+01 5.71539582E+00-1.52309129E-02 6.52441155E-05    3
-7.10806889E-08 2.61352698E-11-2.56427656E+04-1.50409823E+00                   4
C2H2              L 1/91C   2H   2   00   00G   200.000  3500.000  1000.000    1
 4.14756964E+00 5.96166664E-03-2.37294852E-06 4.67412171E-10-3.61235213E-14    2
 2.59359992E+04-1.23028121E+00 8.08681094E-01 2.33615629E-02-3.55171815E-05    3
 2.80152437E-08-8.50072974E-12 2.64289807E+04 1.39397051E+01                   4
C2H3              L 2/92C   2H   3   00   00G   200.000  3500.000  1000.000    1
 3.01672400E+00 1.03302292E-02-4.68082349E-06 1.01763288E-09-8.62607041E-14    2
 3.46128739E+04 7.78732378E+00 3.21246645E+00 1.51479162E-03 2.59209412E-05    3
-3.57657847E-08 1.47150873E-11 3.48598468E+04 8.51054025E+00                   4
C2H4              L 1/91C   2H   4   00   00G   200.000  3500.000  1000.000    1
 2.03611116E+00 1.46454151E-02-6.71077915E-06 1.47222923E-09-1.25706061E-13    2
 4.93988614E+03 1.03053693E+01 3.95920148E+00-7.57052247E-03 5.70990292E-05    3
-6.91588753E-08 2.69884373E-11 5.08977593E+03 4.09733096E+00                   4
C2H5              L12/92C   2H   5   00   00G   200.000  3500.000  1000.000    1
 1.95465642E+00 1.73972722E-02-7.98206668E-06 1.75217689E-09-1.49641576E-13    2
 1.28575200E+04 1.34624343E+01 4.30646568E+00-4.18658892E-03 4.97142807E-05    3
-5.99126606E-08 2.30509004E-11 1.28416265E+04 4.70720924E+00                   4
C2H6              L 8/88C   2H   6   00   00G   200.000  3500.000  1000.000    1
 1.07188150E+00 2.16852677E-02-1.00256067E-05 2.21412001E-09-1.90002890E-13    2
-1.14263932E+04 1.51156107E+01 4.29142492E+00-5.50154270E-03 5.99438288E-05    3
-7.08466285E-08 2.68685771E-11-1.15222055E+04 2.66682316E+00                   4
CH2CO             D05/90C   2H   2O   1   00G   200.000  3500.000  1000.000    1
 4.51129732E+00 9.00359745E-03-4.16939635E-06 9.23345882E-10-7.94838201E-14    2
-7.77850000E+03 6.32247205E-01 2.13583630E+00 1.81188721E-02-1.73947474E-05    3
 9.34397568E-09-2.01457615E-12-7.27000000E+03 1.22156480E+01                   4
CH2CHO            D05/83O   1H   3C   2    0G   300.000  5000.000              1
 0.59756699E+01 0.81305914E-02-0.27436245E-05 0.40703041E-09-0.21760171E-13    2
-0.96950000E+03-0.50320879E+01 0.34090624E+01 0.10738574E-01 0.18914925E-05    3
-0.71585831E-08 0.28673851E-11 0.62000000E+02 0.95714535E+01                   4
CH3CO             T 9/92C   2H   3O   1    0G   200.000  6000.0    1000.0      1
 0.59447731E+01 0.78667205E-02-0.28865882E-05 0.47270875E-09-0.28599861E-13    2
-0.37873075E+04-0.50136751E+01 0.41634257E+01-0.23261610E-03 0.34267820E-04    3
-0.44105227E-07 0.17275612E-10-0.26574529E+04 0.73468280E+01                   4
CH3CHO            L 8/88C   2H   4O   1    0G   200.000  6000.0    1000.0      1
 0.54041108E+01 0.11723059E-01-0.42263137E-05 0.68372451E-09-0.40984863E-13    2
-0.22593122E+05-0.34807917E+01 0.47294595E+01-0.31932858E-02 0.47534921E-04    3
-0.57458611E-07 0.21931112E-10-0.21572878E+05 0.41030159E+01                   4
HCCO              SRIC91H   1C   2O   1     G  0300.00   4000.00  1000.00      1
 0.56282058E+01 0.40853401E-02-0.15934547E-05 0.28626052E-09-0.19407832E-13    2
 0.19327215E+05-0.39302595E+01 0.22517214E+01 0.17655021E-01-0.23729101E-04    3
 0.17275759E-07-0.50664811E-11 0.20059449E+05 0.12490417E+02                   4
C3H3              T 5/97C   3H   3    0    0G   200.000  6000.000              1
 7.14221880E+00 7.61902005E-03-2.67459950E-06 4.24914801E-10-2.51475415E-14    2
 3.89087427E+04-1.25848436E+01 1.35110927E+00 3.27411223E-02-4.73827135E-05    3
 3.76309808E-08-1.18540923E-11 4.01057783E+04 1.52058924E+01 4.16139977E+04    4
aC3H4             L 8/89C   3H   4    0    0G   200.000  6000.000              1
 0.63168722E+01 0.11133728E-01-0.39629378E-05 0.63564238E-09-0.37875540E-13    2
 0.20117495E+05-0.10995766E+02 0.26130445E+01 0.12122575E-01 0.18539880E-04    3
-0.34525149E-07 0.15335079E-10 0.21541567E+05 0.10226139E+02 0.22962267E+05    4
nC3H7             P11/94C   3H   7    0    0G   300.000  3000.000              1
 0.77097479E+01 0.16031485E-01-0.52720238E-05 0.75888352E-09-0.38862719E-13    2
 0.79762236E+04-0.15515297E+02 0.10491173E+01 0.26008973E-01 0.23542516E-05    3
-0.19595132E-07 0.93720207E-11 0.10312346E+05 0.21136034E+02                   4
C3H6              120186C   3H   6          G  0300.00   5000.00  1000.00      1
 0.06732257E+02 0.01490834E+00-0.04949899E-04 0.07212022E-08-0.03766204E-12    2
-0.09235703E+04-0.01331335E+03 0.01493307E+02 0.02092518E+00 0.04486794E-04    3
-0.01668912E-06 0.07158146E-10 0.01074826E+05 0.01614534E+03                   4
C2H3CHO           USC/07C   3H   4O   1    0G   300.000  5000.000              1
 0.58111868E+01 0.17114256E-01-0.74834161E-05 0.14252249E-08-0.91746841E-13    2
-0.10784054E+05-0.48588004E+01 0.12713498E+01 0.26231054E-01-0.92912305E-05    3
-0.47837272E-08 0.33480543E-11-0.93357344E+04 0.19498077E+02                   4
aC3H5             PD5/98C   3H   5    0    0G   300.000  3000.000              1
 0.65007877E+01 0.14324731E-01-0.56781632E-05 0.11080801E-08-0.90363887E-13    2
 0.17482449E+05-0.11243050E+02 0.13631835E+01 0.19813821E-01 0.12497060E-04    3
-0.33355555E-07 0.15846571E-10 0.19245629E+05 0.17173214E+02                   4
iC4H5             USC/07C   4H   5O   0    0G   300.000  5000.000              1
 0.69646029E+01 0.18274333E-01-0.78133735E-05 0.15292154E-08-0.10920493E-12    2
 0.34725098E+05-0.10649321E+02 0.11308105E+00 0.40950615E-01-0.35413581E-04    3
 0.15530969E-07-0.23355122E-11 0.36383371E+05 0.23692457E+02                   4
C4H7              USC/07C   4H   7O   0    0G   300.000  5000.000              1
 0.70134835E+01 0.22634558E-01-0.92545470E-05 0.16807927E-08-0.10408617E-12    2
 0.20955008E+05-0.88893080E+01 0.74449432E+00 0.39678857E-01-0.22898086E-04    3
 0.21352973E-08 0.23096375E-11 0.22653328E+05 0.23437878E+02                   4
C4H6              H6W/94C   4H   6    0    0G   300.000  3000.000              1
 0.88673134E+01 0.14918670E-01-0.31548716E-05-0.41841330E-09 0.15761258E-12    2
 0.91338516E+04-0.23328171E+02 0.11284465E+00 0.34369022E-01-0.11107392E-04    3
-0.92106660E-08 0.62065179E-11 0.11802270E+05 0.23089996E+02                   4
pC4H9             USC/07C   4H   9O   0    0G   300.000  5000.000              1
 0.86822395E+01 0.23691071E-01-0.75948865E-05 0.66427136E-09 0.54845136E-13    2
 0.49644058E+04-0.17891747E+02 0.12087042E+01 0.38297497E-01-0.72660509E-05    3
-0.15428547E-07 0.86859435E-11 0.73221040E+04 0.22169268E+02                   4
C4H81             T 6/83C   4H   8    0    0G   300.000  5000.000              1
 0.20535841E+01 0.34350507E-01-0.15883197E-04 0.33089662E-08-0.25361045E-12    2
-0.21397231E+04 0.15543201E+02 0.11811380E+01 0.30853380E-01 0.50865247E-05    3
-0.24654888E-07 0.11110193E-10-0.17904004E+04 0.21062469E+02                   4
PXC5H11    1/ 2/ 7 THERMC   5H  11    0    0G   300.000  5000.000 1390.000    41
 1.52977446E+01 2.39735310E-02-8.18392948E-06 1.26883076E-09-7.35409055E-14    2
-9.80712307E+02-5.44829293E+01 5.24384081E-02 5.60796958E-02-3.31545803E-05    3
 9.77533781E-09-1.14009660E-12 4.71611460E+03 2.87238666E+01                   4
C5H9              000000N   0H   9O   0C   5G       300      5000    1000      1
 1.01386400E+01 2.27141380E-02-7.79104630E-06 1.18765220E-09-6.59324480E-14    2
-1.72183590E+03-3.31258850E+01-2.41901110E+00 4.04303890E-02 6.78023390E-06    3
-3.37247420E-08 1.51167130E-11 2.81218870E+03 3.64592440E+01                   4
C5H10      1/ 2/ 7 THERMC   5H  10    0    0G   300.000  5000.000 1392.000    31
 1.45851539E+01 2.24072471E-02-7.63348025E-06 1.18188966E-09-6.84385139E-14    2
-1.00898205E+04-5.23683936E+01-1.06223481E+00 5.74218294E-02-3.74486890E-05    3
 1.27364989E-08-1.79609789E-12-4.46546666E+03 3.22739790E+01                   4
PXC6H13    1/ 2/ 7 THERMC   6H  13    0    0G   300.000  5000.000 1390.000    51
 1.85385470E+01 2.83107962E-02-9.65307246E-06 1.49547585E-09-8.66336064E-14    2
-5.09299041E+03-7.04490943E+01-2.04871465E-01 6.83801272E-02-4.14447912E-05    3
 1.26155802E-08-1.53120058E-12 1.83280393E+03 3.16075093E+01                   4
C6H12      1/22/ 7 THERMC   6H  12    0    0G   300.000  5000.000 1392.000    41
 1.78337529E+01 2.67377658E-02-9.10036773E-06 1.40819768E-09-8.15124244E-14    2
-1.42062860E+04-6.83818851E+01-1.35275205E+00 6.98655426E-02-4.59408022E-05    3
 1.56967343E-08-2.21296175E-12-7.34368617E+03 3.53120691E+01                   4
PXC7H15    1/ 2/ 7 THERMC   7H  15    0    0G   300.000  5000.000 1390.000    61
 2.17940709E+01 3.26280243E-02-1.11138244E-05 1.72067148E-09-9.96366999E-14    2
-9.20938221E+03-8.64954311E+01-4.99570406E-01 8.08826467E-02-5.00532754E-05    3
 1.56549308E-08-1.96616227E-12-1.04590223E+03 3.46564011E+01                   4
C7H14      1/ 2/ 7 THERMC   7H  14    0    0G   300.000  5000.000 1392.000    51
 2.10898039E+01 3.10607878E-02-1.05644793E-05 1.63405780E-09-9.45598219E-14    2
-1.83260065E+04-8.44391108E+01-1.67720549E+00 8.24611601E-02-5.46504108E-05    3
 1.87862303E-08-2.65737983E-12-1.02168601E+04 3.85068032E+01                   4
NC8H18     1/ 2/ 7 THERMC   8H  18    0    0G   300.000  5000.000 1391.000    71
 2.54710194E+01 3.90887037E-02-1.33038777E-05 2.05867527E-09-1.19167174E-13    2
-3.83962755E+04-1.08361094E+02-1.54218406E+00 9.78112063E-02-6.09318358E-05    3
 1.92005591E-08-2.42996250E-12-2.85395641E+04 3.83327978E+01                   4
PXC8H17    1/ 2/ 7 THERMC   8H  17    0    0G   300.000  5000.000 1390.000    71
 2.50510356E+01 3.69480162E-02-1.25765264E-05 1.94628409E-09-1.12668898E-13    2
-1.33300535E+04-1.02557384E+02-7.72759438E-01 9.32549705E-02-5.84447245E-05    3
 1.85570214E-08-2.37127483E-12-3.92689511E+03 3.76130631E+01                   4
C8H16      1/ 2/ 7 THERMC   8H  16    0    0G   300.000  5000.000 1392.000    61
 2.43540125E+01 3.53666462E-02-1.20208388E-05 1.85855053E-09-1.07522262E-13    2
-2.24485674E+04-1.00537716E+02-1.89226915E+00 9.46066357E-02-6.27385521E-05    3
 2.15158309E-08-3.02718683E-12-1.31074559E+04 4.11878981E+01                   4
C8H15      1/ 2/ 7 THERMC   8H  15    0    0G   300.000  5000.000 1390.000    61
 2.41485380E+01 3.36466429E-02-1.15692934E-05 1.80261649E-09-1.04847473E-13    2
-5.51631151E+03-1.00894875E+02-1.90098561E+00 9.15067740E-02-6.01588113E-05    3
 2.02337556E-08-2.78235289E-12 3.87213558E+03 4.01405031E+01                   4
NC9H20     1/ 2/ 7 THERMC   9H  20    0    0G   300.000  5000.000 1391.000    81
 2.87289600E+01 4.34074576E-02-1.47660985E-05 2.28420987E-09-1.32194796E-13    2
-4.25174479E+04-1.24428751E+02-1.81390458E+00 1.10176644E-01-6.93124463E-05    3
 2.20957601E-08-2.83355715E-12-3.14207716E+04 4.12827220E+01                   4
PXC9H19    1/ 2/ 7 THERMC   9H  19    0    0G   300.000  5000.000 1390.000    81
 2.83097514E+01 4.12657344E-02-1.40383289E-05 2.17174871E-09-1.25692307E-13    2
-1.74516030E+04-1.16837897E+02-1.04387292E+00 1.05617283E-01-6.68199971E-05    3
 2.14486166E-08-2.77404275E-12-6.80818512E+03 4.23518992E+01                   4
C9H18      1/ 2/ 7 THERMC   9H  18    0    0G   300.000  5000.000 1392.000    71
 2.76142176E+01 3.96825287E-02-1.34819446E-05 2.08390452E-09-1.20539294E-13    2
-2.65709061E+04-1.16618623E+02-2.16108263E+00 1.06958297E-01-7.10973244E-05    3
 2.43971077E-08-3.42771547E-12-1.59890847E+04 4.41245128E+01                   4
NC10H22    1/ 2/ 7 THERMC  10H  22    0    0G   300.000  5000.000 1391.000    91
 3.19882239E+01 4.77244922E-02-1.62276391E-05 2.50963259E-09-1.45215772E-13    2
-4.66392840E+04-1.40504121E+02-2.08416969E+00 1.22535012E-01-7.76815739E-05    3
 2.49834877E-08-3.23548038E-12-3.43021863E+04 4.42260140E+01                   4
PXC10H21   1/ 2/ 7 THERMC  10H  21    0    0G   300.000  5000.000 1390.000    91
 3.15697160E+01 4.55818403E-02-1.54994965E-05 2.39710933E-09-1.38709559E-13    2
-2.15737832E+04-1.34708986E+02-1.31358348E+00 1.17972813E-01-7.51843079E-05    3
 2.43331106E-08-3.17522852E-12-9.68967550E+03 4.35010452E+01                   4
C10H20     1/22/ 7 THERMC  10H  20    0    0G   300.000  5000.000 1392.000    81
 3.08753903E+01 4.39971526E-02-1.49425530E-05 2.30917678E-09-1.33551477E-13    2
-3.06937307E+04-1.32705172E+02-2.42901688E+00 1.19305598E-01-7.94489025E-05    3
 2.72736596E-08-3.82718373E-12-1.88708365E+04 4.70571383E+01                   4
NC11H24    1/22/ 7 THERMC  11H  24    0    0G   300.000  5000.000 1391.000    11
 3.52484813E+01 5.20402416E-02-1.76886732E-05 2.73497226E-09-1.58231832E-13    2
-5.07616214E+04-1.56585288E+02-2.35338447E+00 1.34888270E-01-8.60424000E-05    3
 2.78658195E-08-3.63619953E-12-3.71837502E+04 4.71645217E+01                   4
PXC11H23   1/22/ 7 THERMC  11H  23    0    0G   300.000  5000.000 1391.000    11
 3.48306023E+01 4.98967610E-02-1.69601993E-05 2.62239406E-09-1.51722334E-13    2
-2.56964317E+04-1.50793815E+02-1.58230042E+00 1.30323530E-01-8.35408417E-05    3
 2.72125730E-08-3.57529580E-12-1.25713075E+04 4.64373071E+01                   4
C11H22     1/ 2/ 7 THERMC  11H  22    0    0G   300.000  5000.000 1392.000    91
 3.41376800E+01 4.83102359E-02-1.64025319E-05 2.53434308E-09-1.46557255E-13    2
-3.48170932E+04-1.48798197E+02-2.69653994E+00 1.31650370E-01-8.77957172E-05    3
 3.01467965E-08-4.22584486E-12-2.17526343E+04 4.99879917E+01                   4
NC12H26    1/ 2/ 7 THERMC  12H  26    0    0G   300.000  5000.000 1391.000    11
 3.85095037E+01 5.63550048E-02-1.91493200E-05 2.96024862E-09-1.71244150E-13    2
-5.48843465E+04-1.72670922E+02-2.62181594E+00 1.47237711E-01-9.43970271E-05    3
 3.07441268E-08-4.03602230E-12-4.00654253E+04 5.00994626E+01                   4
PXC12H25   1/ 2/ 7 THERMC  12H  25    0    0G   300.000  5000.000 1390.000    11
 3.80921885E+01 5.42107848E-02-1.84205517E-05 2.84762173E-09-1.64731748E-13    2
-2.98194375E+04-1.66882734E+02-1.85028741E+00 1.42670708E-01-9.18916555E-05    3
 3.00883392E-08-3.97454300E-12-1.54530435E+04 4.93702421E+01                   4
SXC12H25   1/ 2/ 7 THERMC  12H  25    0    0G   300.000  5000.000 1385.000    11
 3.79688268E+01 5.38719464E-02-1.82171263E-05 2.80774503E-09-1.62108420E-13    2
-3.12144988E+04-1.65805933E+02-1.36787089E+00 1.37355348E-01-8.24076158E-05    3
 2.36421562E-08-2.47435932E-12-1.67660539E+04 4.83521895E+01                   4
S3XC12H25  1/ 2/ 7 THERMC  12H  25    0    0G   300.000  5000.000 1385.000    11
 3.79688268E+01 5.38719464E-02-1.82171263E-05 2.80774503E-09-1.62108420E-13    2
-3.12144988E+04-1.65805933E+02-1.36787089E+00 1.37355348E-01-8.24076158E-05    3
 2.36421562E-08-2.47435932E-12-1.67660539E+04 4.83521895E+01                   4
C12H24     1/22/ 7 THERMC  12H  24    0    0G   300.000  5000.000 1391.000    11
 3.74002111E+01 5.26230753E-02-1.78624319E-05 2.75949863E-09-1.59562499E-13    2
-3.89405962E+04-1.64892663E+02-2.96342681E+00 1.43992360E-01-9.61384015E-05    3
 3.30174473E-08-4.62398190E-12-2.46345299E+04 5.29158870E+01                   4
C12H26O2   1/24/ 7 THERMC  12H  26O   2    0G   300.000  5000.000 1390.000    31
 4.35257442E+01 5.78016040E-02-1.99632594E-05 3.11946519E-09-1.81796787E-13    2
-6.68122451E+04-1.92119235E+02-5.33975911E-01 1.56648083E-01-1.05028971E-04    3
 3.67984049E-08-5.38662910E-12-5.09380146E+04 4.62325087E+01                   4
C12H25O2          000000N   0H  25O   2C  12G       300      5000    1000      1
 2.84782000E+01 5.37539000E-02-1.68186000E-05 2.51367000E-09-1.47208000E-13    2
-3.74118000E+04-1.09121000E+02 5.31404000E+00 8.93873000E-02 1.45351000E-05    3
-7.49250000E-08 3.35325000E-11-2.98918000E+04 1.69741000E+01                   4

!C12H25O2   1/24/ 7 THERMC  12H  25O   2    0G   300.000  5000.000 1389.000    21
! 4.10720559E+01 5.76223879E-02-1.98682057E-05 3.10098353E-09-1.80567383E-13    2
!-4.84961160E+04-1.77176648E+02 4.13301762E-01 1.47893311E-01-9.69755376E-05    3
! 3.35724323E-08-4.91454646E-12-3.36844450E+04 4.32258761E+01                   4
C12OOH            000000N   0H  25O   2C  12G       300      5000    1000      1
 2.92019000E+01 5.15917000E-02-1.57327000E-05 2.30306000E-09-1.32640000E-13    2
-3.11192000E+04-1.08855000E+02 5.15231000E+00 9.97913000E-02-1.80635000E-05    3
-4.18435000E-08 2.22786000E-11-2.38380000E+04 1.93526000E+01                   4

!C12OOH     1/24/ 7 THERMC  12H  25O   2    0G   300.000  5000.000 1387.000    31
! 4.29994696E+01 5.50833554E-02-1.88955870E-05 2.93978363E-09-1.70823564E-13    2
!-4.30658136E+04-1.85856878E+02 1.60721186E-01 1.49325879E-01-9.67266789E-05    3
! 3.17154092E-08-4.20449417E-12-2.75569298E+04 4.63656051E+01                   4
C12H26O4   1/24/ 7 THERMC  12H  26O   4    0G   300.000  5000.000 1390.000    51
 5.03368769E+01 5.67494383E-02-1.97115026E-05 3.09203723E-09-1.80689139E-13    2
-8.14466175E+04-2.23085533E+02-2.94753190E-01 1.75805891E-01-1.28643781E-04    3
 4.93995330E-08-7.88291511E-12-6.37896715E+04 4.88174790E+01                   4
O2C12H24OOH       000000N   0H  25O   4C  12G       300      5000    1000      1
 3.50907000E+01 5.10590000E-02-1.54345000E-05 2.24627000E-09-1.28901000E-13    2
-5.12675000E+04-1.37750000E+02 4.81972000E-01 1.45020000E-01-9.99308000E-05    3
 2.60422000E-08 1.19358000E-12-4.16875000E+04 4.13429000E+01                   4

!O2C12H24OOH        THERMC  12H  25O   4    0G   300.000  5000.000 1389.000    41
! 4.78237378E+01 5.66012764E-02-1.96226767E-05 3.07404604E-09-1.79468346E-13    2
!-6.30929400E+04-2.07768890E+02 6.91692611E-01 1.67000994E-01-1.20729787E-04    3
! 4.63412670E-08-7.45842745E-12-4.65446291E+04 4.56074372E+01                   4
OC12H23OOH        000000N   0H  24O   3C  12G       300      5000    1000      1
 2.36731000E+01 6.16392000E-02-2.09836000E-05 3.33166000E-09-2.03590000E-13    2
-7.18258000E+04-7.77662000E+01 8.80733000E+00 6.50623000E-02 6.95058000E-05    3
-1.26905000E-07 5.10991000E-11-6.65361000E+04 6.84155000E+00                   4

!OC12H23OOH         THERMC  12H  24O   3    0G   300.000  5000.000 1392.000    21
! 4.49664435E+01 5.45029400E-02-1.88364401E-05 2.94475639E-09-1.71672676E-13    2
!-7.80784935E+04-1.96879294E+02-9.04780358E-01 1.62600770E-01-1.18036891E-04    3
! 4.52507973E-08-7.22772167E-12-6.21001449E+04 4.93825152E+01                   4

IC16H34    2/ 1/ 8 THERMC  16H  34    0    0G   300.000  5000.000 1400.000    91
 5.65856523e+01 6.92869560e-02-2.34931111e-05 3.62720220e-09-2.09665225e-13    2
-7.80105076e+04-2.79045957e+02-1.07545408e+01 2.33995831e-01-1.78076331e-04    3
 6.96956034e-08-1.10282035e-11-5.55719693e+04 7.96404133e+01                   4
C16H33     2/ 1/ 8 THERMC  16H  33    0    0g   300.000  5000.000 1400.000    91
 5.61688384e+01 6.71423021e-02-2.27642500e-05 3.51457104e-09-2.03153113e-13    2
-5.29459471e+04-2.72163724e+02-9.98194617e+00 2.29424493e-01-1.75565281e-04    3
 6.90368869e-08-1.09662103e-11-3.09597573e+04 8.00033151e+01                   4  
C16H33OO   2/ 1/ 8 THERMC  16H  33O   2    0g   300.000  5000.000 1398.000    91
 5.91538182e+01 7.00315922e-02-2.40072658e-05 3.73315584e-09-2.16840503e-13    2
-7.22505061e+04-2.84462602e+02-6.36423583e+00 2.28962784e-01-1.72797875e-04    3
 6.75981062e-08-1.07849856e-11-5.01522808e+04 6.52107221e+01                   4
OOC16H33   2/ 1/ 8 THERMC  16H  33O   2    0g   300.000  5000.000 1398.000    91
 5.91538182e+01 7.00315922e-02-2.40072658e-05 3.73315584e-09-2.16840503e-13    2
-7.22505061e+04-2.84462602e+02-6.36423583e+00 2.28962784e-01-1.72797875e-04    3
 6.75981062e-08-1.07849856e-11-5.01522808e+04 6.52107221e+01                   4
C16Ket     2/15/ 8 THERMC  16H  32O   3    0g   300.000  5000.000 1400.000    91
 6.23272540e+01 6.76839702e-02-2.32763085e-05 3.62742680e-09-2.11027806e-13    2
-1.01574124e+05-2.99593107e+02-8.37994180e+00 2.43144964e-01-1.91591336e-04    3
 7.76083207e-08-1.27174277e-11-7.81824446e+04 7.62725313e+01                   4
C16H32OOH  4/29/ 8 THERMC  16H  33O   2    0g   300.000  5000.000 1401.000    91
 6.11610506e+01 6.80728833e-02-2.32781740e-05 3.61399938e-09-2.09692618e-13    2
-6.46789904e+04-2.93935521e+02-7.58150810e+00 2.39139502e-01-1.87761946e-04    3
 7.60204766e-08-1.24567526e-11-4.20025248e+04 7.12863308e+01                   4
C16H32OOHO2 4/29/8 THERMC  16H  33O   4    0g   300.000  5000.000 1400.000    91
 6.48523660e+01 6.96154831e-02-2.39035408e-05 3.72116194e-09-2.16313596e-13    2
-8.41792190e+04-3.08933713e+02-4.46040143e+00 2.40576711e-01-1.86969692e-04    3
 7.50517084e-08-1.22306016e-11-6.11148867e+04 5.99377024e+01                   4
C3H6CO    03/03/95 THERMC   4H   6O   1    0g   300.000  5000.000 1397.000    41
 1.32548232e+01 1.40142787e-02-4.78910215e-06 7.42924342e-10-4.30737566e-14    2
-2.00529779e+04-4.44810221e+01 2.28039055e+00 4.17016989e-02-3.25089661e-05    3
 1.37243419e-08-2.40573132e-12-1.63939712e+04 1.38187714e+01                   4
C16H32     4/24/ 7 THERMC  16H  32    0    0g   300.000  5000.000 1391.000    91
 5.00204748e+01 7.03835641e-02-2.39071672e-05 3.69503334e-09-2.13727801e-13    2
-5.67417290e+04-2.27225053e+02-4.46218175e+00 1.93885202e-01-1.29936439e-04    3
 4.48052609e-08-6.30368611e-12-3.74477255e+04 6.67127843e+01                   4
C8H17      4/ 4/97 THERNC   8H  17    0    0G   300.000  5000.000 1390.000    71
 2.50510356e+01 3.69480162e-02-1.25765264e-05 1.94628409e-09-1.12668898e-13    2
-1.33300535e+04-1.02557384e+02-7.72759438e-01 9.32549705e-02-5.84447245e-05    3
 1.85570214e-08-2.37127483e-12-3.92689511e+03 3.76130631e+01                   4
C8H16      7/27/95 THERMC   8H  16    0    0g   300.000  5000.000 1394.000    61
 2.56756746e+01 3.41801998e-02-1.16002952e-05 1.79195478e-09-1.03613002e-13    2
-2.62458324e+04-1.13928273e+02-2.79610447e+00 1.00836172e-01-7.12250651e-05    3
 2.60659824e-08-3.90031814e-12-1.64002496e+04 3.88854068e+01                   4

PXC16H33   2/ 1/ 8 THERMC  16H  33    0    0g   300.000  5000.000 1400.000    91
 5.61688384e+01 6.71423021e-02-2.27642500e-05 3.51457104e-09-2.03153113e-13    2
-5.29459471e+04-2.72163724e+02-9.98194617e+00 2.29424493e-01-1.75565281e-04    3
 6.90368869e-08-1.09662103e-11-3.09597573e+04 8.00033151e+01                   4  
SXC16H33   2/ 1/ 8 THERMC  16H  33    0    0g   300.000  5000.000 1400.000    91
 5.61688384e+01 6.71423021e-02-2.27642500e-05 3.51457104e-09-2.03153113e-13    2
-5.29459471e+04-2.72163724e+02-9.98194617e+00 2.29424493e-01-1.75565281e-04    3
 6.90368869e-08-1.09662103e-11-3.09597573e+04 8.00033151e+01                   4  